Circuit: * C:\users\thetheos\My Documents\Université\BAC2\Q4.P_Elec\Problem\P2\Simulations\Filtre passe bas\Draft1.asc

No AC stimulus found:
     Set the value of a current or voltage source to "AC 1."
     to make it behave as a signal generator for AC analysis.
Direct Newton iteration for .op point succeeded.

Date: Wed Mar 11 17:26:18 2020
Total elapsed time: 0.025 seconds.

tnom = 27
temp = 27
method = trap
totiter = 17
traniter = 0
tranpoints = 0
accept = 0
rejected = 0
matrix size = 30
fillins = 39
solver = Normal
Matrix Compiler1:     193 opcodes
Matrix Compiler2: 3.09 KB object code size
