Circuit: * C:\Users\guill\Programmes\LELEC1101-31\Labos\S6\filtre_passe_bande.asc

Direct Newton iteration for .op point succeeded.

Date: Tue Mar 31 18:05:05 2020
Total elapsed time: 1.686 seconds.

tnom = 27
temp = 27
method = modified trap
totiter = 323734
traniter = 323716
tranpoints = 161859
accept = 109033
rejected = 52826
matrix size = 32
fillins = 32
solver = Normal
Matrix Compiler1: 2.84 KB object code size  0.5/0.3/[0.2]
Matrix Compiler2: 3.09 KB object code size  0.3/0.4/[0.3]

