Circuit: * C:\users\thetheos\My Documents\Université\BAC2\Q4.P_Elec\Labos\S6\filtre_passe_bande.asc

Direct Newton iteration for .op point succeeded.

Date: Wed Mar 11 19:36:43 2020
Total elapsed time: 0.021 seconds.

tnom = 27
temp = 27
method = trap
totiter = 21
traniter = 0
tranpoints = 0
accept = 0
rejected = 0
matrix size = 30
fillins = 32
solver = Normal
Matrix Compiler1:     156 opcodes
Matrix Compiler2: 2.98 KB object code size
