Circuit: * C:\Users\guill\Programmes\LELEC1101-31\Ressources\allBlocks\RX_Arcsinus\arc sine.asc

Direct Newton iteration for .op point succeeded.

Date: Sun Mar 29 20:05:53 2020
Total elapsed time: 4.792 seconds.

tnom = 27
temp = 27
method = modified trap
totiter = 988181
traniter = 988171
tranpoints = 219273
accept = 158470
rejected = 60803
matrix size = 25
fillins = 8
solver = Normal
Matrix Compiler1: 1.36 KB object code size  0.3/0.2/[0.1]
Matrix Compiler2: 2.07 KB object code size  0.2/0.3/[0.2]

