Circuit: * C:\users\thetheos\Mes documents\Universite\BAC2\Q4.P_Elec\Ressources\allBlocks\RX_Arcsinus\arc sine.asc

Direct Newton iteration for .op point succeeded.

Date: Thu Mar 26 23:49:44 2020
Total elapsed time: 51.340 seconds.

tnom = 27
temp = 27
method = modified trap
totiter = 10388251
traniter = 10388226
tranpoints = 2270940
accept = 1622758
rejected = 648182
matrix size = 25
fillins = 14
solver = Normal
Matrix Compiler1: 1.54 KB object code size  0.5/0.4/[0.2]
Matrix Compiler2: off  [0.4]/0.4/0.4

