Circuit: * C:\users\thetheos\Mes documents\Universite\BAC2\Q4.P_Elec\Ressources\allBlocks\gilber_cell.asc

Early termination of direct N-R iteration.
Direct Newton iteration failed to find .op point.  (Use ".option noopiter" to skip.)
Starting Gmin stepping
Gmin = 10
Gmin = 1.07374
Gmin = 0.115292
Gmin = 0.0123794
Gmin = 0.00132923
Gmin = 0.000142725
Gmin = 1.5325e-05
Gmin = 1.6455e-06
Gmin = 1.76685e-07
Gmin = 1.89714e-08
Gmin = 2.03704e-09
Gmin = 2.18725e-10
Gmin = 2.34854e-11
Gmin = 2.52173e-12
Gmin = 2.70769e-13
Gmin = 0
Gmin stepping succeeded in finding the operating point.


Date: Sun Mar 22 22:04:27 2020
Total elapsed time: 4.811 seconds.

tnom = 27
temp = 27
method = modified trap
totiter = 806767
traniter = 806445
tranpoints = 327627
accept = 201632
rejected = 125995
matrix size = 36
fillins = 84
solver = Normal
Matrix Compiler1: 8.16 KB object code size  4.8/3.1/[1.7]
Matrix Compiler2: 4.62 KB object code size  2.2/2.2/[1.5]

