Circuit: * C:\users\thetheos\Mes documents\Universite\BAC2\Q4.P_Elec\Ressources\allBlocks\gilbert_cell_multiplier\gilber_cell.asc

Early termination of direct N-R iteration.
Direct Newton iteration failed to find .op point.  (Use ".option noopiter" to skip.)
Starting Gmin stepping
Gmin = 10
vernier = 0.5
vernier = 0.25
vernier = 0.125
Gmin = 5.5165
vernier = 0.0625
vernier = 0.03125
vernier = 0.015625
vernier = 0.0078125
Gmin = 5.49501
vernier = 0.00390625
vernier = 0.00195313
vernier = 0.000976563
vernier = 0.000488281
Gmin = 5.50104
Gmin = 0
Gmin stepping failed

Starting source stepping with srcstepmethod=0
Source Step = 3.0303%
Source Step = 33.3333%
Source Step = 63.6364%
Source Step = 93.9394%
Source stepping succeeded in finding the operating point.


Date: Fri Mar 27 11:21:48 2020
Total elapsed time: 8.564 seconds.

tnom = 27
temp = 27
method = modified trap
totiter = 795608
traniter = 793950
tranpoints = 338847
accept = 201521
rejected = 137326
matrix size = 64
fillins = 145
solver = Normal
Matrix Compiler1: 12.37 KB object code size  2.8/1.5/[0.8]
Matrix Compiler2: 8.08 KB object code size  6.2/5.5/[2.0]

