Circuit: * C:\users\thetheos\My Documents\Université\BAC2\Q4.P_Elec\Ressources\allBlocks\ez_multiplier.asc

Early termination of direct N-R iteration.
Direct Newton iteration failed to find .op point.  (Use ".option noopiter" to skip.)
Starting Gmin stepping
Gmin = 10
vernier = 0.5
vernier = 0.25
vernier = 0.125
Gmin = 5.5165
vernier = 0.0625
vernier = 0.03125
vernier = 0.015625
vernier = 0.0078125
Gmin = 5.49501
vernier = 0.00390625
vernier = 0.00195313
vernier = 0.000976563
vernier = 0.000488281
Gmin = 5.50104
Gmin = 0
Gmin stepping succeeded in finding the operating point.


Date: Thu Mar 19 22:50:39 2020
Total elapsed time: 1.350 seconds.

tnom = 27
temp = 27
method = modified trap
totiter = 48469
traniter = 46974
tranpoints = 23129
accept = 15505
rejected = 7624
matrix size = 102
fillins = 759
solver = Normal
Thread vector: 8.3/6.8[2] 2.3/2.1[1] 1.9/2.4[1] 0.7/2.2[1]  2592/500
Matrix Compiler1: 84.91 KB object code size  11.6/5.1/[3.2]
Matrix Compiler2: 21.57 KB object code size  4.0/3.4/[1.1]

