Circuit: * C:\Users\guill\Programmes\LELEC1101-31\Ressources\allBlocks\RX_lowPassFilter\lowPassFilter.asc

.OP point found by inspection.

Date: Wed Mar 18 19:11:12 2020
Total elapsed time: 0.306 seconds.

tnom = 27
temp = 27
method = modified trap
totiter = 73036
traniter = 73036
tranpoints = 36519
accept = 26518
rejected = 10001
matrix size = 3
fillins = 0
solver = Normal
Matrix Compiler1:       3 opcodes  0.0/[0.0]/0.0
Matrix Compiler2: 175 bytes object code size  0.0/0.0/[0.0]

