Circuit: *AD834 Macro-model

Fatal Error: No analysis request found.
