Circuit: * C:\Users\guill\Programmes\LELEC1101-31\Ressources\allBlocks\arc sine.asc

Direct Newton iteration for .op point succeeded.

Date: Mon May 11 14:52:57 2020
Total elapsed time: 0.085 seconds.

tnom = 27
temp = 27
method = modified trap
totiter = 2125
traniter = 2098
tranpoints = 1045
accept = 1045
rejected = 0
matrix size = 40
fillins = 32
solver = Normal
Matrix Compiler1: 3.36 KB object code size  0.7/0.3/[0.3]
Matrix Compiler2: off  [0.3]/0.5/0.4

