Circuit: * C:\Users\guill\Programmes\LELEC1101-31\Ressources\allBlocks\arc sine.asc

Early termination of direct N-R iteration.
Direct Newton iteration failed to find .op point.  (Use ".option noopiter" to skip.)
Starting Gmin stepping
Gmin = 10
vernier = 0.5
vernier = 0.25
vernier = 0.125
Gmin = 5.5165
vernier = 0.0625
vernier = 0.03125
vernier = 0.015625
vernier = 0.0078125
Gmin = 5.49501
vernier = 0.00390625
vernier = 0.00195313
vernier = 0.000976563
vernier = 0.000488281
Gmin = 5.50104
Gmin = 0
Gmin stepping failed

Starting source stepping with srcstepmethod=0
Source Step = 3.0303%
Source Step = 33.3333%
Source Step = 63.6364%
Source Step = 93.9394%
Source stepping succeeded in finding the operating point.


Date: Thu Apr  2 16:21:21 2020
Total elapsed time: 5.575 seconds.

tnom = 27
temp = 27
method = modified trap
totiter = 296853
traniter = 295117
tranpoints = 104080
accept = 76116
rejected = 27964
matrix size = 113
fillins = 641
solver = Normal
Matrix Compiler1: 48.56 KB object code size  8.4/3.4/[2.3]
Matrix Compiler2: 21.08 KB object code size  3.1/3.0/[0.9]

