Circuit: * C:\Users\guill\Programmes\LELEC1101-31\Ressources\allBlocks\Draft1.asc

Fatal Error: Unknown subcircuit called in:
   xu1 0 n006 vcc vee n007 tl084
