Circuit: * C:\users\thetheos\My Documents\Université\BAC2\Q4.P_Elec\Ressources\allBlocks\multiplier.asc

WARNING: Less than two connections to node N009.  This node is used by R7.
WARNING: Less than two connections to node NC_01.  This node is used by R11.
Early termination of direct N-R iteration.
Direct Newton iteration failed to find .op point.  (Use ".option noopiter" to skip.)
Starting Gmin stepping
Gmin = 10
vernier = 0.5
vernier = 0.25
vernier = 0.125
Gmin = 5.49741
vernier = 0.0625
vernier = 0.03125
vernier = 0.015625
vernier = 0.0078125
Gmin = 5.51716
vernier = 0.00390625
vernier = 0.00195313
vernier = 0.000976563
vernier = 0.000488281
Gmin = 5.50104
Gmin = 0
Gmin stepping failed

Starting source stepping with srcstepmethod=0
Source Step = 3.0303%
Source Step = 33.3333%
Source Step = 63.6364%
Source Step = 64.7786%
Source Step = 64.8082%
Source Step = 64.8378%
Source Step = 64.8674%
Source Step = 64.897%
vernier = 0.00146484
Source Step = 64.9281%
Source Step = 64.9725%
Source Step = 65.0169%
Source Step = 65.0613%
Source Step = 65.1056%
Source Step = 65.15%
vernier = 0.00219727
Source Step = 65.2166%
Source Step = 65.2832%
Source Step = 65.3498%
Source Step = 65.4164%
Source Step = 65.483%
vernier = 0.0032959
Source Step = 65.5795%
Source Step = 65.6794%
Source Step = 65.7793%
Source Step = 65.8791%
Source Step = 65.979%
vernier = 0.00494385
Source Step = 66.1188%
Source Step = 66.2686%
Source Step = 66.4185%
Source Step = 66.5683%
Source Step = 66.7181%
vernier = 0.00741577
Source Step = 66.9203%
Source Step = 67.1451%
Source Step = 67.3698%
Source Step = 67.5945%
Source Step = 67.8192%
vernier = 0.0111237
Source Step = 68.1114%
Source Step = 68.4484%
Source Step = 68.7855%
Source Step = 69.1226%
Source Step = 69.4597%
vernier = 0.0166855
Source Step = 69.881%
Source Step = 70.3866%
Source Step = 70.8923%
Source Step = 71.3979%
Source Step = 71.9035%
vernier = 0.0250282
Source Step = 72.5103%
Source Step = 73.2687%
Source Step = 74.0271%
Source Step = 74.7855%
Source Step = 75.544%
vernier = 0.0375423
Source Step = 76.4162%
Source Step = 77.5538%
Source Step = 78.6915%
Source Step = 79.8291%
Source Step = 80.9668%
vernier = 0.0563135
Source Step = 82.2182%
Source Step = 83.9246%
Source Step = 85.6311%
Source Step = 87.3376%
Source Step = 89.0441%
vernier = 0.0844703
Source Step = 90.8358%
Source Step = 93.3955%
Source Step = 95.9553%
Source Step = 98.515%
Source stepping succeeded in finding the operating point.


Date: Fri Mar 20 09:12:44 2020
Total elapsed time: 3.673 seconds.

tnom = 27
temp = 27
method = modified trap
totiter = 25713
traniter = 21608
tranpoints = 10805
accept = 6416
rejected = 4389
matrix size = 177
fillins = 1131
solver = Normal
Thread vector: 14.6/10.1[3] 4.2/2.9[3] 3.6/3.4[1] 1.1/17.8[1]  2592/500
Matrix Compiler1: 149.22 KB object code size  21.0/9.1/[5.9]
Matrix Compiler2: 35.04 KB object code size  6.1/4.6/[1.6]

