Circuit: * C:\Users\guill\Programmes\LELEC1101-31\Ressources\allBlocks\multiplier.asc

Early termination of direct N-R iteration.
Direct Newton iteration failed to find .op point.  (Use ".option noopiter" to skip.)
Starting Gmin stepping
Gmin = 10
vernier = 0.5
vernier = 0.25
vernier = 0.125
Gmin = 5.49741
vernier = 0.0625
vernier = 0.03125
vernier = 0.015625
vernier = 0.0078125
Gmin = 5.51716
vernier = 0.00390625
vernier = 0.00195313
vernier = 0.000976563
vernier = 0.000488281
Gmin = 5.50104
Gmin = 0
Gmin stepping failed

Starting source stepping with srcstepmethod=0
Source Step = 3.0303%
Source Step = 33.3333%
Source Step = 63.6364%
Source Step = 93.9394%
Source stepping succeeded in finding the operating point.


Date: Thu Mar 19 00:48:42 2020
Total elapsed time: 0.736 seconds.

tnom = 27
temp = 27
method = modified trap
totiter = 3803
traniter = 2088
tranpoints = 1045
accept = 1045
rejected = 0
matrix size = 123
fillins = 1204
solver = Normal
Thread vector: 7.5/6.2[3] 3.0/2.3[2] 4.3/2.6[3] 0.8/3.7[1]  2592/500
Matrix Compiler1: 196.21 KB object code size  38.8/17.2/[9.7]
Matrix Compiler2: 31.62 KB object code size  6.2/3.5/[1.7]

