Circuit: * C:\users\thetheos\My Documents\Université\BAC2\Q4.P_Elec\Ressources\allBlocks\multiplier.asc

WARNING: Less than two connections to node NC_01.  This node is used by R11.
Early termination of direct N-R iteration.
Direct Newton iteration failed to find .op point.  (Use ".option noopiter" to skip.)
Starting Gmin stepping
Gmin = 10
vernier = 0.5
vernier = 0.25
vernier = 0.125
Gmin = 5.5165
vernier = 0.0625
vernier = 0.03125
vernier = 0.015625
vernier = 0.0078125
Gmin = 5.49501
vernier = 0.00390625
vernier = 0.00195313
vernier = 0.000976563
vernier = 0.000488281
Gmin = 5.50104
Gmin = 0
Gmin stepping failed

Starting source stepping with srcstepmethod=0
Source Step = 3.0303%
Source Step = 9.84848%
Source Step = 17.4242%
Source Step = 25%
Source Step = 32.5758%
Source Step = 40.1515%
vernier = 0.375
Source Step = 50.7576%
Source Step = 62.1212%
Source Step = 73.4848%
Source Step = 84.8485%
Source Step = 96.2121%
vernier = 0.5625
Source stepping succeeded in finding the operating point.


Date: Fri Mar 20 00:26:48 2020
Total elapsed time: 2.144 seconds.

tnom = 27
temp = 27
method = modified trap
totiter = 18405
traniter = 16294
tranpoints = 8148
accept = 5218
rejected = 2930
matrix size = 176
fillins = 1437
solver = Normal
Thread vector: 15.1/8.3[4] 4.2/3.2[4] 3.7/3.2[3] 1.3/2.1[1]  2592/500
Matrix Compiler1: 232.92 KB object code size  29.5/13.1/[8.9]
Matrix Compiler2: 40.19 KB object code size  7.4/4.9/[1.9]

