Circuit: * C:\users\thetheos\My Documents\Université\BAC2\Q4.P_Elec\Ressources\allBlocks\TX_oscillator\oscillo.asc

Early termination of direct N-R iteration.
Direct Newton iteration failed to find .op point.  (Use ".option noopiter" to skip.)
Starting Gmin stepping
Gmin = 10
vernier = 0.5
vernier = 0.25
vernier = 0.125
Gmin = 5.5165
vernier = 0.0625
vernier = 0.03125
vernier = 0.015625
vernier = 0.0078125
Gmin = 5.49501
vernier = 0.00390625
vernier = 0.00195313
vernier = 0.000976563
vernier = 0.000488281
Gmin = 5.50104
Gmin = 0
Gmin stepping succeeded in finding the operating point.

Heightened Def Con from 2.10909e-007 to 2.11159e-007
Heightened Def Con from 2.13195e-007 to 2.1421e-007
Heightened Def Con from 2.14648e-007 to 2.14898e-007
Heightened Def Con from 2.15716e-007 to 2.15747e-007
Heightened Def Con from 2.15802e-007 to 2.16927e-007
Heightened Def Con from 2.17677e-007 to 2.17927e-007
Heightened Def Con from 2.21333e-007 to 2.21334e-007
Heightened Def Con from 2.21334e-007 to 2.21366e-007
Heightened Def Con from 2.21405e-007 to 2.21407e-007
Heightened Def Con from 2.21408e-007 +to 2.21549e-007
Heightened Def Con from 2.22095e-007 to 2.22345e-007
Heightened Def Con from 2.22467e-007 to 2.23592e-007
Heightened Def Con from 2.23694e-007 to 2.23944e-007
Heightened Def Con from 2.24257e-007 to 2.25257e-007
Heightened Def Con from 2.25293e-007 to 2.25293e-007
Heightened Def Con from 2.25293e-007 to 2.26308e-007
Heightened Def Con from 2.26342e-007 to 2.26592e-007
Heightened Def Con from 2.28593e-007 to 2.28843e-007
Heightened Def Con from 2.29593e-007 to 2.29843e-007
Heightened Def Con from 2.30335e-007 to 2.3146e-007
Heightened Def Con from 2.32448e-007 to 2.3345e-007
Heightened Def Con from 2.33462e-007 to 2.33462e-007
Heightened Def Con from 2.33462e-007 +to 2.33587e-007
Heightened Def Con from 2.33845e-007 to 2.3386e-007
Heightened Def Con from 2.3386e-007 to 2.3411e-007
Heightened Def Con from 2.35888e-007 to 2.36013e-007
Heightened Def Con from 2.36708e-007 to 2.36708e-007
Heightened Def Con from 2.36708e-007 to 2.36958e-007
Heightened Def Con from 2.36962e-007 to 2.36962e-007
Heightened Def Con from 2.37306e-007 to 2.37337e-007
Heightened Def Con from 2.37917e-007 to 2.38167e-007
Heightened Def Con from 2.38432e-007 to 2.38682e-007
Heightened Def Con from 2.38687e-007 to 2.38687e-007
Heightened Def Con from 2.38687e-007 to 2.38687e-007
Heightened Def Con from 2.38687e-007 to 2.38687e-007
Heightened Def Con from 2.38687e-007 to 2.38937e-007
Heightened Def Con from 2.39053e-007 to 2.39053e-007
Heightened Def Con from 2.39084e-007 to 2.391e-007
Heightened Def Con from 2.39318e-007 to 2.39318e-007
Heightened Def Con from 2.39318e-007 to 2.39318e-007
Heightened Def Con from 2.39318e-007 to 2.39336e-007
Heightened Def Con from 2.39343e-007 to 2.39343e-007
Heightened Def Con from 2.39343e-007 to 2.40359e-007
Heightened Def Con from 2.40359e-007 to 2.41484e-007
Heightened Def Con from 2.42837e-007 to 2.43839e-007
Heightened Def Con from 2.43843e-007 to 2.44859e-007
Heightened Def Con from 2.4501e-007 to 2.4501e-007
Heightened Def Con from 2.4501e-007 ++to 2.4501e-007
Heightened Def Con from 2.4501e-007 to 2.4501e-007
Heightened Def Con from 2.4501e-007 to 2.4601e-007
Heightened Def Con from 2.46012e-007 to 2.47027e-007
Heightened Def Con from 2.47027e-007 to 2.47027e-007
Heightened Def Con from 2.47027e-007 to 2.48152e-007
Heightened Def Con from 2.48546e-007 to 2.48577e-007
Heightened Def Con from 2.48577e-007 to 2.48577e-007
Heightened Def Con from 2.48577e-007 to 2.49577e-007
Heightened Def Con from 2.49577e-007 to 2.49577e-007
Heightened Def Con from 2.49577e-007 to 2.49577e-007
Heightened Def Con from 2.49577e-007 to 2.49827e-007
Heightened Def Con from 2.81577e-007 to 2.82577e-007
Heightened Def Con from 2.86284e-007 to 2.87409e-007
Heightened Def Con from 2.88371e-007 to 2.88371e-007
Heightened Def Con from 2.88371e-007 to 2.88621e-007
Heightened Def Con from 2.89684e-007 to 2.89811e-007
Heightened Def Con from 2.89816e-007 to 2.89847e-007
Heightened Def Con from 2.89941e-007 to 2.90191e-007
Heightened Def Con from 2.90699e-007 to 2.90826e-007
Heightened Def Con from 2.90885e-007 to 2.909e-007
Heightened Def Con from 2.909e-007 to 2.90932e-007
Heightened Def Con from 2.91025e-007 to 2.91275e-007
Heightened Def Con from 2.91834e-007 to 2.91834e-007
Heightened Def Con from 2.91834e-007 to 2.9196e-007
Heightened Def Con from 2.9196e-007 to 2.92101e-007
Heightened Def Con from 2.94386e-007 to 2.94386e-007
Heightened Def Con from 2.94386e-007 to 2.95386e-007
Heightened Def Con from 2.95386e-007 to 2.96388e-007
Heightened Def Con from 2.96641e-007 to 2.97657e-007
Heightened Def Con from 2.97657e-007 to 2.98657e-007
Heightened Def Con from 2.98657e-007 to 2.98659e-007
Heightened Def Con from 2.98667e-007 to 2.99669e-007
Heightened Def Con from 2.99669e-007 to 2.99919e-007
Heightened Def Con from 3.00184e-007 to 3.00434e-007
Heightened Def Con from 3.01441e-007 to 3.02566e-007
Heightened Def Con from 3.02834e-007 to 3.02834e-007
Heightened Def Con from 3.02834e-007 to 3.03084e-007
Heightened Def Con from 5.75642e-007 to 5.75642e-007
Heightened Def Con from 5.75642e-007 to 5.77642e-007
Heightened Def Con from 5.77642e-007 to 5.79642e-007
Heightened Def Con from 5.80299e-007 to 5.81424e-007
Heightened Def Con from 5.81428e-007 to 5.82553e-007
Heightened Def Con from 5.82771e-007 to 5.84771e-007
Heightened Def Con from 5.84771e-007 to 5.86771e-007
Heightened Def Con from 5.88303e-007 to 5.90303e-007
Heightened Def Con from 5.90307e-007 to 5.91432e-007
Heightened Def Con from 5.91436e-007 to 5.93436e-007
Heightened Def Con from 5.94186e-007 to 5.94186e-007
Heightened Def Con from 5.94186e-007 to 5.94311e-007
Heightened Def Con from 5.94311e-007 to 5.96311e-007
Heightened Def Con from 5.96748e-007 to 5.96998e-007
Heightened Def Con from 5.96999e-007 to 5.98124e-007
Heightened Def Con from 5.98889e-007 to 5.99905e-007
Heightened Def Con from 5.99905e-007 to 6.00905e-007
Heightened Def Con from 6.00905e-007 to 6.0203e-007
Heightened Def Con from 6.03124e-007 to 6.05124e-007
Heightened Def Con from 6.05874e-007 to 6.05999e-007
Heightened Def Con from 6.08733e-007 to 6.08983e-007
Heightened Def Con from 6.08983e-007 to 6.10983e-007
Heightened Def Con from 6.11733e-007 to 6.11733e-007
Heightened Def Con from 6.11733e-007 to 6.11749e-007
Heightened Def Con from 6.11749e-007 to 6.13749e-007
Heightened Def Con from 6.14061e-007 to 6.14061e-007
Heightened Def Con from 6.14061e-007 to 6.16061e-007
Heightened Def Con from 6.19233e-007 to 6.20235e-007
Heightened Def Con from 6.20235e-007 to 6.21237e-007
Heightened Def Con from 6.21239e-007 to 6.22241e-007
Heightened Def Con from 6.22241e-007 to 6.22272e-007
Heightened Def Con from 6.22272e-007 to 6.24272e-007
Heightened Def Con from 6.25366e-007 to 6.27366e-007
Heightened Def Con from 6.29776e-007 to 6.31776e-007
Heightened Def Con from 9.13107e-007 to 9.14232e-007
Heightened Def Con from 9.14446e-007 to 9.14587e-007
Heightened Def Con from 9.14604e-007 to 9.16604e-007
Heightened Def Con from 9.26228e-007 to 9.2623e-007
Heightened Def Con from 9.2623e-007 to 9.26261e-007
Heightened Def Con from 9.26273e-007 to 9.26398e-007
Heightened Def Con from 9.26399e-007 to 9.2643e-007
Heightened Def Con from 9.26435e-007 to 9.28435e-007
Heightened Def Con from 9.31073e-007 to 9.31323e-007
Heightened Def Con from 9.32074e-007 to 9.32214e-007
Heightened Def Con from 9.3231e-007 to 9.3331e-007
Heightened Def Con from 9.3331e-007 to 9.33437e-007
Heightened Def Con from 9.3388e-007 to 9.3588e-007
Heightened Def Con from 9.42885e-007 to 9.43887e-007
Heightened Def Con from 9.439e-007 to 9.44915e-007
Heightened Def Con from 9.45504e-007 to 9.45519e-007
Heightened Def Con from 9.45519e-007 to 9.45519e-007
Heightened Def Con from 9.45529e-007 to 9.45529e-007
Heightened Def Con from 9.45529e-007 to 9.45529e-007
Heightened Def Con from 9.4553e-007 to 9.45533e-007
Heightened Def Con from 9.45605e-007 to 9.45621e-007
Heightened Def Con from 9.45621e-007 to 9.45623e-007
Heightened Def Con from 9.45632e-007 to 9.45663e-007
Heightened Def Con from 9.45666e-007 to 9.4567e-007
Heightened Def Con from 9.45671e-007 to 9.45671e-007
Heightened Def Con from 9.45671e-007 to 9.45671e-007
Heightened Def Con from 9.45671e-007 ++to 9.45671e-007
Heightened Def Con from 9.45671e-007 ++to 9.47671e-007
Heightened Def Con from 9.47931e-007 to 9.47931e-007
Heightened Def Con from 9.47931e-007 ++to 9.47931e-007
Heightened Def Con from 9.47931e-007 to 9.47933e-007
Heightened Def Con from 9.47933e-007 to 9.48949e-007
Heightened Def Con from 9.48949e-007 +to 9.48949e-007
Heightened Def Con from 9.48949e-007 +++to 9.49074e-007
Heightened Def Con from 9.49074e-007 +to 9.49074e-007
Heightened Def Con from 9.49074e-007 +to 9.49074e-007
Heightened Def Con from 9.49074e-007 to 9.49074e-007
Heightened Def Con from 9.49074e-007 to 9.50074e-007
Heightened Def Con from 9.50074e-007 +to 9.50074e-007
Heightened Def Con from 9.50074e-007 to 9.50075e-007
Heightened Def Con from 9.50075e-007 to 9.5009e-007
Heightened Def Con from 9.5009e-007 to 9.50091e-007
Heightened Def Con from 9.50091e-007 to 9.50091e-007
Heightened Def Con from 9.50091e-007 +to 9.50093e-007
Heightened Def Con from 9.50093e-007 to 9.50093e-007
Heightened Def Con from 9.50093e-007 to 9.50095e-007
Heightened Def Con from 9.50095e-007 to 9.50095e-007
Heightened Def Con from 9.50095e-007 to 9.50099e-007
Heightened Def Con from 9.50099e-007 to 9.50099e-007
Heightened Def Con from 9.501e-007 +++++++to 9.501e-007
Heightened Def Con from 9.501e-007 to 9.501e-007
Heightened Def Con from 9.501e-007 to 9.501e-007
Heightened Def Con from 9.501e-007 +++to 9.50102e-007
Heightened Def Con from 9.50102e-007 +to 9.50102e-007
Heightened Def Con from 9.50102e-007 to 9.50227e-007
Heightened Def Con from 9.50227e-007 to 9.50229e-007
Heightened Def Con from 9.50229e-007 to 9.50229e-007
Heightened Def Con from 9.50229e-007 to 9.50229e-007
Heightened Def Con from 9.50229e-007 +to 9.50229e-007
Heightened Def Con from 9.50229e-007 +to 9.50244e-007
Heightened Def Con from 9.50244e-007 +to 9.50244e-007
Heightened Def Con from 9.50244e-007 +to 9.50244e-007
Heightened Def Con from 9.50244e-007 to 9.5126e-007
Heightened Def Con from 9.51292e-007 to 9.53292e-007
Heightened Def Con from 9.73123e-007 to 9.73373e-007
Heightened Def Con from 9.73843e-007 to 9.75843e-007
Heightened Def Con from 9.81862e-007 to 9.83862e-007
Heightened Def Con from 9.91737e-007 to 9.91862e-007
Heightened Def Con from 9.91862e-007 to 9.92003e-007
Heightened Def Con from 9.92003e-007 to 9.92253e-007
Heightened Def Con from 9.93443e-007 to 9.93443e-007
Heightened Def Con from 9.93443e-007 to 9.95443e-007
Heightened Def Con from 1.00144e-006 to 1.00244e-006
Heightened Def Con from 1.00244e-006 to 1.00345e-006
Heightened Def Con from 1.00345e-006 to 1.0037e-006
Heightened Def Con from 1.00396e-006 to 1.00399e-006
Heightened Def Con from 1.00403e-006 to 1.00417e-006
Heightened Def Con from 1.00417e-006 to 1.00417e-006
Heightened Def Con from 1.00418e-006 to 1.00421e-006
Heightened Def Con from 1.00428e-006 to 1.00428e-006
Heightened Def Con from 1.00428e-006 to 1.0053e-006
Heightened Def Con from 1.0053e-006 to 1.00643e-006
Heightened Def Con from 1.01018e-006 to 1.01031e-006
Heightened Def Con from 1.01031e-006 to 1.01231e-006
Heightened Def Con from 1.01736e-006 to 1.01736e-006
Heightened Def Con from 1.01737e-006 to 1.01737e-006
Heightened Def Con from 1.01738e-006 to 1.01738e-006
Heightened Def Con from 1.01738e-006 to 1.01738e-006
Heightened Def Con from 1.01738e-006 to 1.01738e-006
Heightened Def Con from 1.01738e-006 to 1.01738e-006
Heightened Def Con from 1.01738e-006 +to 1.01738e-006
Heightened Def Con from 1.01738e-006 ++++++++++++to 1.01838e-006
Heightened Def Con from 1.01838e-006 ++++++++++++to 1.01838e-006
Heightened Def Con from 1.01838e-006 ++++++++++++to 1.01938e-006
Heightened Def Con from 1.01938e-006 ++++++++++++to 1.0194e-006
Heightened Def Con from 1.0194e-006 ++++++++++++to 1.0204e-006
Heightened Def Con from 1.0204e-006 ++++++++++++to 1.0204e-006
Heightened Def Con from 1.0204e-006 ++++++++++++to 1.02052e-006
Heightened Def Con from 1.02052e-006 ++++++++++++to 1.02152e-006
Heightened Def Con from 1.02152e-006 ++++++++++++to 1.02154e-006
Heightened Def Con from 1.02154e-006 ++++++++++++to 1.02154e-006
Heightened Def Con from 1.02154e-006 ++++++++++++to 1.02167e-006
Heightened Def Con from 1.02167e-006 ++++++++++++to 1.02179e-006
Heightened Def Con from 1.02179e-006 ++++++++++++to 1.02181e-006
Heightened Def Con from 1.02181e-006 ++++++++++++to 1.02281e-006
Heightened Def Con from 1.06519e-006 to 1.06519e-006
Heightened Def Con from 1.06519e-006 to 1.06519e-006
Heightened Def Con from 1.06519e-006 to 1.06519e-006
Heightened Def Con from 1.06519e-006 to 1.06519e-006
Heightened Def Con from 1.06519e-006 ++++++++to 1.06532e-006
Heightened Def Con from 1.06532e-006 ++++++++to 1.06532e-006
Heightened Def Con from 1.06532e-006 ++++++++to 1.06532e-006
Heightened Def Con from 1.06532e-006 ++++++++to 1.06632e-006
Heightened Def Con from 1.06632e-006 ++++++++to 1.06732e-006
Heightened Def Con from 1.06732e-006 ++++++++to 1.06832e-006
Heightened Def Con from 1.06832e-006 ++++++++to 1.06932e-006
Heightened Def Con from 1.06932e-006 ++++++++to 1.07032e-006
Heightened Def Con from 1.07032e-006 +++++++to 1.07132e-006
Heightened Def Con from 1.07132e-006 +++++++to 1.07144e-006
Heightened Def Con from 1.07144e-006 +++++++to 1.07146e-006
Heightened Def Con from 1.07146e-006 +++++++to 1.07246e-006
Heightened Def Con from 1.07246e-006 +++++++to 1.07346e-006
Heightened Def Con from 1.07346e-006 +++++++to 1.07359e-006
Heightened Def Con from 1.07359e-006 +++++++to 1.07459e-006
Heightened Def Con from 1.07459e-006 +++++++to 1.07559e-006
Heightened Def Con from 1.07559e-006 +++++++to 1.07659e-006
Heightened Def Con from 1.07659e-006 +++++++to 1.07759e-006
Heightened Def Con from 1.07759e-006 +++++++to 1.07859e-006
Heightened Def Con from 1.07859e-006 +++++++to 1.07959e-006
Heightened Def Con from 1.07959e-006 +++++++to 1.07959e-006
Heightened Def Con from 1.07959e-006 +++++++to 1.07971e-006
Heightened Def Con from 1.07971e-006 +++++++to 1.08071e-006
Heightened Def Con from 1.08071e-006 +++++++to 1.08084e-006
Heightened Def Con from 1.08084e-006 +++++++to 1.08096e-006
Heightened Def Con from 1.08096e-006 +++++++to 1.08109e-006
Heightened Def Con from 1.08109e-006 +++++++to 1.08109e-006
Heightened Def Con from 1.08109e-006 +++++++to 1.08209e-006
Heightened Def Con from 1.08209e-006 +++++++to 1.08309e-006
Heightened Def Con from 1.08309e-006 +++++++to 1.08409e-006
Heightened Def Con from 1.08409e-006 +++++++to 1.0841e-006
Heightened Def Con from 1.0841e-006 +++++++to 1.0851e-006
Heightened Def Con from 1.0851e-006 +++++++to 1.08523e-006
Heightened Def Con from 1.08523e-006 +++++++to 1.08535e-006
Heightened Def Con from 1.08535e-006 +++++++to 1.08635e-006
Heightened Def Con from 1.08635e-006 +++++++to 1.08648e-006
Heightened Def Con from 1.08648e-006 +++++++to 1.08748e-006
Heightened Def Con from 1.09003e-006 to 1.09203e-006
Heightened Def Con from 1.09418e-006 to 1.09421e-006
Heightened Def Con from 1.09462e-006 to 1.09575e-006
Heightened Def Con from 1.09578e-006 to 1.09778e-006
Heightened Def Con from 1.13414e-006 to 1.13614e-006
Heightened Def Con from 1.13659e-006 to 1.13662e-006
Heightened Def Con from 1.13665e-006 to 1.13865e-006
Heightened Def Con from 1.14717e-006 to 1.14731e-006
Heightened Def Con from 1.14751e-006 to 1.14951e-006
Heightened Def Con from 1.1574e-006 to 1.1574e-006
Heightened Def Con from 1.1574e-006 to 1.15743e-006
Heightened Def Con from 1.15744e-006 to 1.15744e-006
Heightened Def Con from 1.15744e-006 to 1.15845e-006
Heightened Def Con from 1.15845e-006 to 1.15848e-006
Heightened Def Con from 1.15848e-006 to 1.16048e-006
Heightened Def Con from 1.16059e-006 to 1.16071e-006
Heightened Def Con from 1.16072e-006 +to 1.16072e-006
Heightened Def Con from 1.16072e-006 to 1.16072e-006
Heightened Def Con from 1.16072e-006 to 1.16072e-006
Heightened Def Con from 1.16072e-006 to 1.16072e-006
Heightened Def Con from 1.16072e-006 to 1.16074e-006
Heightened Def Con from 1.16074e-006 to 1.16076e-006
Heightened Def Con from 1.16076e-006 to 1.16076e-006
Heightened Def Con from 1.16076e-006 to 1.16076e-006
Heightened Def Con from 1.16076e-006 to 1.16076e-006
Heightened Def Con from 1.16076e-006 to 1.16089e-006
Heightened Def Con from 1.16089e-006 ++to 1.16091e-006
Heightened Def Con from 1.16091e-006 ++to 1.16103e-006
Heightened Def Con from 1.16103e-006 ++to 1.16105e-006
Heightened Def Con from 1.16105e-006 ++to 1.16105e-006
Heightened Def Con from 1.16105e-006 ++to 1.16105e-006
Heightened Def Con from 1.16105e-006 ++to 1.16105e-006
Heightened Def Con from 1.16105e-006 +to 1.16205e-006
Heightened Def Con from 1.16205e-006 +++to 1.16205e-006
Heightened Def Con from 1.16205e-006 +to 1.16205e-006
Heightened Def Con from 1.16205e-006 +to 1.16207e-006
Heightened Def Con from 1.16207e-006 +++to 1.16307e-006
Heightened Def Con from 1.16307e-006 +++to 1.16319e-006
Heightened Def Con from 1.16319e-006 +++to 1.16332e-006
Heightened Def Con from 1.16332e-006 +++to 1.16332e-006
Heightened Def Con from 1.16332e-006 +++to 1.16344e-006
Heightened Def Con from 1.16344e-006 +++to 1.16346e-006
Heightened Def Con from 1.16346e-006 ++to 1.16358e-006
Heightened Def Con from 1.16358e-006 +++to 1.16358e-006
Heightened Def Con from 1.16358e-006 +++to 1.16458e-006
Heightened Def Con from 1.16458e-006 +++to 1.16459e-006
Heightened Def Con from 1.16459e-006 +++to 1.16459e-006
Heightened Def Con from 1.16459e-006 ++++to 1.16559e-006
Heightened Def Con from 1.16559e-006 ++++to 1.16659e-006
Heightened Def Con from 1.16659e-006 to 1.16759e-006
Heightened Def Con from 1.16759e-006 to 1.16871e-006
Heightened Def Con from 1.16871e-006 to 1.16984e-006
Heightened Def Con from 1.17018e-006 to 1.17018e-006
Heightened Def Con from 1.17019e-006 to 1.17219e-006
Heightened Def Con from 1.17219e-006 to 1.17221e-006
Heightened Def Con from 1.17221e-006 +to 1.17322e-006
Heightened Def Con from 1.17322e-006 to 1.17522e-006
Heightened Def Con from 1.20621e-006 to 1.20646e-006
Heightened Def Con from 1.20668e-006 to 1.20769e-006
Heightened Def Con from 1.20798e-006 to 1.20799e-006
Heightened Def Con from 1.208e-006 to 1.20812e-006
Heightened Def Con from 1.20812e-006 to 1.20812e-006
Heightened Def Con from 1.20813e-006 to 1.21013e-006
Heightened Def Con from 1.21139e-006 to 1.21339e-006
Heightened Def Con from 1.21339e-006 +to 1.21539e-006
Heightened Def Con from 1.21586e-006 to 1.216e-006
Heightened Def Con from 1.21603e-006 to 1.21605e-006
Heightened Def Con from 1.21605e-006 to 1.2163e-006
Heightened Def Con from 1.2163e-006 to 1.2173e-006
Heightened Def Con from 1.2173e-006 to 1.2173e-006
Heightened Def Con from 1.2173e-006 to 1.2183e-006
Heightened Def Con from 1.2183e-006 to 1.21943e-006
Heightened Def Con from 1.2195e-006 to 1.2195e-006
Heightened Def Con from 1.2195e-006 to 1.21975e-006
Heightened Def Con from 1.21978e-006 +to 1.21978e-006
Heightened Def Con from 1.21979e-006 to 1.21981e-006
Heightened Def Con from 1.21984e-006 to 1.22084e-006
Heightened Def Con from 1.22084e-006 to 1.22284e-006
Heightened Def Con from 1.22284e-006 to 1.22385e-006
Heightened Def Con from 1.22385e-006 to 1.22498e-006
Heightened Def Con from 1.22501e-006 to 1.22515e-006
Heightened Def Con from 1.22518e-006 to 1.22518e-006
Heightened Def Con from 1.22518e-006 to 1.2252e-006
Heightened Def Con from 1.2252e-006 to 1.22534e-006
Heightened Def Con from 1.22534e-006 to 1.22536e-006
Heightened Def Con from 1.22536e-006 to 1.22539e-006
Heightened Def Con from 1.22549e-006 to 1.22549e-006
Heightened Def Con from 1.22549e-006 to 1.22562e-006
Heightened Def Con from 1.22562e-006 to 1.22562e-006
Heightened Def Con from 1.22562e-006 to 1.22587e-006
Heightened Def Con from 1.22587e-006 to 1.22587e-006
Heightened Def Con from 1.22587e-006 to 1.22587e-006
Heightened Def Con from 1.22587e-006 +to 1.22587e-006
Heightened Def Con from 1.22587e-006 to 1.22587e-006
Heightened Def Con from 1.22587e-006 to 1.22601e-006
Heightened Def Con from 1.22601e-006 to 1.22602e-006
Heightened Def Con from 1.22602e-006 to 1.22602e-006
Heightened Def Con from 1.22602e-006 to 1.22602e-006
Heightened Def Con from 1.22602e-006 to 1.22702e-006
Heightened Def Con from 1.22702e-006 to 1.22814e-006
Heightened Def Con from 1.22845e-006 to 1.22958e-006
Heightened Def Con from 1.22965e-006 to 1.2299e-006
Heightened Def Con from 1.2299e-006 to 1.23003e-006
Heightened Def Con from 1.23003e-006 to 1.23003e-006
Heightened Def Con from 1.23003e-006 to 1.23203e-006
Heightened Def Con from 1.23213e-006 to 1.23225e-006
Heightened Def Con from 1.2325e-006 to 1.23251e-006
Heightened Def Con from 1.23251e-006 to 1.23252e-006
Heightened Def Con from 1.23252e-006 to 1.23252e-006
Heightened Def Con from 1.23252e-006 to 1.23252e-006
Heightened Def Con from 1.23252e-006 to 1.23277e-006
Heightened Def Con from 1.23278e-006 to 1.23478e-006
Heightened Def Con from 1.23504e-006 to 1.23604e-006
Heightened Def Con from 1.23604e-006 to 1.23604e-006
Heightened Def Con from 1.23604e-006 to 1.23604e-006
Heightened Def Con from 1.23604e-006 to 1.23607e-006
Heightened Def Con from 1.23607e-006 to 1.2362e-006
Heightened Def Con from 1.2362e-006 to 1.2362e-006
Heightened Def Con from 1.2362e-006 +to 1.2372e-006
Heightened Def Con from 1.2372e-006 +to 1.23721e-006
Heightened Def Con from 1.23721e-006 +to 1.23722e-006
Heightened Def Con from 1.23722e-006 +to 1.23734e-006
Heightened Def Con from 1.23734e-006 +to 1.23747e-006
Heightened Def Con from 1.23747e-006 +++to 1.23847e-006
Heightened Def Con from 1.24049e-006 to 1.24049e-006
Heightened Def Con from 1.24049e-006 to 1.24063e-006
Heightened Def Con from 1.24063e-006 to 1.24263e-006
Heightened Def Con from 1.24267e-006 to 1.2427e-006
Heightened Def Con from 1.2427e-006 to 1.2427e-006
Heightened Def Con from 1.2427e-006 to 1.24382e-006
Heightened Def Con from 1.24383e-006 to 1.24495e-006
Heightened Def Con from 1.24495e-006 to 1.24497e-006
Heightened Def Con from 1.24497e-006 to 1.24497e-006
Heightened Def Con from 1.24497e-006 to 1.24497e-006
Heightened Def Con from 1.24497e-006 to 1.24597e-006
Heightened Def Con from 1.24597e-006 to 1.24597e-006
Heightened Def Con from 1.24597e-006 to 1.24622e-006
Heightened Def Con from 1.24654e-006 to 1.24655e-006
Heightened Def Con from 1.24656e-006 to 1.24657e-006
Heightened Def Con from 1.24657e-006 to 1.24659e-006
Heightened Def Con from 1.24659e-006 to 1.24771e-006
Heightened Def Con from 1.24848e-006 to 1.25048e-006
Heightened Def Con from 1.25256e-006 to 1.25281e-006
Heightened Def Con from 1.25308e-006 to 1.25312e-006
Heightened Def Con from 1.25312e-006 to 1.25337e-006
Heightened Def Con from 1.25337e-006 to 1.25351e-006
Heightened Def Con from 1.25351e-006 to 1.25353e-006
Heightened Def Con from 1.25354e-006 to 1.25454e-006
Heightened Def Con from 1.25454e-006 to 1.25567e-006
Heightened Def Con from 1.25567e-006 to 1.25668e-006
Heightened Def Con from 1.25669e-006 to 1.25669e-006
Heightened Def Con from 1.25669e-006 to 1.2567e-006
Heightened Def Con from 1.2567e-006 to 1.2567e-006
Heightened Def Con from 1.2567e-006 to 1.25695e-006
Heightened Def Con from 1.25695e-006 to 1.25696e-006
Heightened Def Con from 1.25696e-006 to 1.25696e-006
Heightened Def Con from 1.25696e-006 to 1.25696e-006
Heightened Def Con from 1.25696e-006 to 1.25696e-006
Heightened Def Con from 1.25696e-006 to 1.25709e-006
Heightened Def Con from 1.25709e-006 to 1.25721e-006
Heightened Def Con from 1.25721e-006 to 1.25721e-006
Heightened Def Con from 1.25721e-006 to 1.25734e-006
Heightened Def Con from 1.25734e-006 to 1.25747e-006
Heightened Def Con from 1.25747e-006 to 1.25747e-006
Heightened Def Con from 1.25747e-006 to 1.25747e-006
Heightened Def Con from 1.25747e-006 to 1.25747e-006
Heightened Def Con from 1.25747e-006 to 1.25759e-006
Heightened Def Con from 1.25759e-006 to 1.25761e-006
Heightened Def Con from 1.25761e-006 to 1.25761e-006
Heightened Def Con from 1.25761e-006 to 1.25761e-006
Heightened Def Con from 1.25761e-006 to 1.25761e-006
Heightened Def Con from 1.25761e-006 to 1.25763e-006
Heightened Def Con from 1.25763e-006 to 1.25763e-006
Heightened Def Con from 1.25763e-006 to 1.25763e-006
Heightened Def Con from 1.25763e-006 to 1.25763e-006
Heightened Def Con from 1.25763e-006 to 1.25763e-006
Heightened Def Con from 1.25763e-006 to 1.25765e-006
Heightened Def Con from 1.25765e-006 to 1.25765e-006
Heightened Def Con from 1.25765e-006 to 1.25765e-006
Heightened Def Con from 1.25765e-006 to 1.25765e-006
Heightened Def Con from 1.25765e-006 to 1.25765e-006
Heightened Def Con from 1.25765e-006 to 1.25765e-006
Heightened Def Con from 1.25765e-006 to 1.25767e-006
Heightened Def Con from 1.25767e-006 to 1.25767e-006
Heightened Def Con from 1.25767e-006 to 1.25767e-006
Heightened Def Con from 1.25767e-006 to 1.25767e-006
Heightened Def Con from 1.25767e-006 ++to 1.2578e-006
Heightened Def Con from 1.2578e-006 to 1.2578e-006
Heightened Def Con from 1.2578e-006 ++to 1.2588e-006
Heightened Def Con from 1.2588e-006 +to 1.25892e-006
Heightened Def Con from 1.25895e-006 to 1.26095e-006
Heightened Def Con from 1.26796e-006 to 1.26896e-006
Heightened Def Con from 1.26896e-006 to 1.26997e-006
Heightened Def Con from 1.2702e-006 to 1.2712e-006
Heightened Def Con from 1.2712e-006 to 1.27132e-006
Heightened Def Con from 1.27133e-006 to 1.27333e-006
Heightened Def Con from 1.2736e-006 to 1.2736e-006
Heightened Def Con from 1.2736e-006 to 1.27462e-006
Heightened Def Con from 1.27462e-006 to 1.27562e-006
Heightened Def Con from 1.27562e-006 to 1.27587e-006
Heightened Def Con from 1.27599e-006 to 1.27624e-006
Heightened Def Con from 1.27717e-006 to 1.27729e-006
Heightened Def Con from 1.27757e-006 to 1.27957e-006
Heightened Def Con from 1.28135e-006 to 1.28138e-006
Heightened Def Con from 1.28138e-006 to 1.2824e-006
Heightened Def Con from 1.2824e-006 to 1.28241e-006
Heightened Def Con from 1.28241e-006 to 1.28254e-006
Heightened Def Con from 1.28254e-006 to 1.28354e-006
Heightened Def Con from 1.28361e-006 to 1.28463e-006
Heightened Def Con from 1.28463e-006 to 1.28463e-006
Heightened Def Con from 1.28463e-006 to 1.28463e-006
Heightened Def Con from 1.28463e-006 to 1.28463e-006
Heightened Def Con from 1.28463e-006 to 1.28488e-006
Heightened Def Con from 1.28488e-006 to 1.28588e-006
Heightened Def Con from 1.28606e-006 to 1.28706e-006
Heightened Def Con from 1.28706e-006 to 1.28706e-006
Heightened Def Con from 1.28706e-006 to 1.28719e-006
Heightened Def Con from 1.28719e-006 to 1.28719e-006
Heightened Def Con from 1.28719e-006 to 1.2882e-006
Heightened Def Con from 1.28823e-006 to 1.28923e-006
Heightened Def Con from 1.28923e-006 to 1.28925e-006
Heightened Def Con from 1.28925e-006 to 1.2895e-006
Heightened Def Con from 1.28953e-006 to 1.28955e-006
Heightened Def Con from 1.28955e-006 to 1.29056e-006
Heightened Def Con from 1.29059e-006 to 1.29061e-006
Heightened Def Con from 1.29061e-006 to 1.29062e-006
Heightened Def Con from 1.29083e-006 to 1.29085e-006
Heightened Def Con from 1.29085e-006 to 1.29185e-006
Heightened Def Con from 1.29186e-006 to 1.29198e-006
Heightened Def Con from 1.29198e-006 to 1.29398e-006
Heightened Def Con from 1.29607e-006 to 1.2962e-006
Heightened Def Con from 1.2962e-006 to 1.29722e-006
Heightened Def Con from 1.29731e-006 to 1.29732e-006
Heightened Def Con from 1.29732e-006 to 1.29746e-006
Heightened Def Con from 1.3006e-006 to 1.3016e-006
Heightened Def Con from 1.3016e-006 to 1.3036e-006
Heightened Def Con from 1.3056e-006 to 1.30585e-006
Heightened Def Con from 1.30585e-006 to 1.30585e-006
Heightened Def Con from 1.30585e-006 to 1.30698e-006
Heightened Def Con from 1.30703e-006 to 1.30903e-006
Heightened Def Con from 1.31154e-006 to 1.31254e-006
Heightened Def Con from 1.31254e-006 to 1.31454e-006
Heightened Def Con from 1.31465e-006 to 1.31465e-006
Heightened Def Con from 1.31465e-006 to 1.31565e-006
Heightened Def Con from 1.31565e-006 to 1.31565e-006
Heightened Def Con from 1.31565e-006 to 1.31568e-006
Heightened Def Con from 1.31568e-006 to 1.31593e-006
Heightened Def Con from 1.31593e-006 to 1.31593e-006
Heightened Def Con from 1.31593e-006 to 1.31793e-006
Heightened Def Con from 1.32003e-006 to 1.32203e-006
Heightened Def Con from 1.32454e-006 to 1.32654e-006
Heightened Def Con from 1.32732e-006 to 1.32733e-006
Heightened Def Con from 1.32744e-006 to 1.32744e-006
Heightened Def Con from 1.32744e-006 to 1.32844e-006
Heightened Def Con from 1.32845e-006 to 1.32846e-006
Heightened Def Con from 1.32846e-006 to 1.32847e-006
Heightened Def Con from 1.32847e-006 to 1.32861e-006
Heightened Def Con from 1.32861e-006 to 1.32861e-006
Heightened Def Con from 1.32861e-006 to 1.32863e-006
Heightened Def Con from 1.32863e-006 to 1.32963e-006
Heightened Def Con from 1.32963e-006 to 1.32988e-006
Heightened Def Con from 1.32988e-006 to 1.32988e-006
Heightened Def Con from 1.32988e-006 to 1.3299e-006
Heightened Def Con from 1.32993e-006 to 1.32993e-006
Heightened Def Con from 1.32993e-006 to 1.32993e-006
Heightened Def Con from 1.32993e-006 to 1.32993e-006
Heightened Def Con from 1.32993e-006 to 1.32993e-006
Heightened Def Con from 1.32993e-006 to 1.32993e-006
Heightened Def Con from 1.32993e-006 to 1.32993e-006
Heightened Def Con from 1.32993e-006 to 1.32993e-006
Heightened Def Con from 1.32993e-006 to 1.32993e-006
Heightened Def Con from 1.32993e-006 +to 1.33006e-006
Heightened Def Con from 1.33006e-006 +to 1.33006e-006
Heightened Def Con from 1.33006e-006 +to 1.33019e-006
Heightened Def Con from 1.33019e-006 to 1.33019e-006
Heightened Def Con from 1.33019e-006 to 1.33019e-006
Heightened Def Con from 1.3302e-006 to 1.33032e-006
Heightened Def Con from 1.33032e-006 to 1.33045e-006
Heightened Def Con from 1.33045e-006 to 1.33145e-006
Heightened Def Con from 1.33145e-006 to 1.33145e-006
Heightened Def Con from 1.33145e-006 to 1.33158e-006
Heightened Def Con from 1.33158e-006 to 1.33172e-006
Heightened Def Con from 1.33194e-006 to 1.33195e-006
Heightened Def Con from 1.33195e-006 to 1.3322e-006
Heightened Def Con from 1.3322e-006 to 1.33233e-006
Heightened Def Con from 1.33255e-006 +to 1.33267e-006
Heightened Def Con from 1.33292e-006 to 1.33294e-006
Heightened Def Con from 1.33294e-006 to 1.33394e-006
Heightened Def Con from 1.33394e-006 to 1.33594e-006
Heightened Def Con from 1.33681e-006 to 1.33881e-006
Heightened Def Con from 1.33912e-006 to 1.34025e-006
Heightened Def Con from 1.34035e-006 to 1.34136e-006
Heightened Def Con from 1.34137e-006 to 1.3414e-006
Heightened Def Con from 1.34151e-006 to 1.34176e-006
Heightened Def Con from 1.34248e-006 to 1.34251e-006
Heightened Def Con from 1.34251e-006 to 1.34254e-006
Heightened Def Con from 1.34255e-006 to 1.34455e-006
Heightened Def Con from 1.34655e-006 to 1.34855e-006
Heightened Def Con from 1.35936e-006 to 1.35936e-006
Heightened Def Con from 1.35937e-006 to 1.36137e-006
Heightened Def Con from 1.3614e-006 to 1.36253e-006
Heightened Def Con from 1.36286e-006 to 1.36486e-006
Heightened Def Con from 1.37624e-006 to 1.37624e-006
Heightened Def Con from 1.37624e-006 to 1.37624e-006
Heightened Def Con from 1.37624e-006 to 1.37649e-006
Heightened Def Con from 1.37655e-006 to 1.37655e-006
Heightened Def Con from 1.37655e-006 to 1.37668e-006
Heightened Def Con from 1.37668e-006 to 1.37668e-006
Heightened Def Con from 1.37668e-006 +to 1.37768e-006
Heightened Def Con from 1.37768e-006 +to 1.3777e-006
Heightened Def Con from 1.3777e-006 to 1.37771e-006
Heightened Def Con from 1.37775e-006 +to 1.37975e-006
Heightened Def Con from 1.37975e-006 to 1.37977e-006
Heightened Def Con from 1.37977e-006 to 1.38177e-006
Heightened Def Con from 1.38177e-006 ++to 1.38277e-006
Heightened Def Con from 1.3853e-006 to 1.3853e-006
Heightened Def Con from 1.3853e-006 to 1.38531e-006
Heightened Def Con from 1.38531e-006 to 1.38631e-006
Heightened Def Con from 1.38633e-006 to 1.38733e-006
Heightened Def Con from 1.38733e-006 to 1.38758e-006
Heightened Def Con from 1.38758e-006 to 1.3877e-006
Heightened Def Con from 1.38771e-006 to 1.38796e-006
Heightened Def Con from 1.3882e-006 to 1.3902e-006
Heightened Def Con from 1.3922e-006 to 1.3932e-006
Heightened Def Con from 1.39835e-006 to 1.3986e-006
Heightened Def Con from 1.39865e-006 to 1.39877e-006
Heightened Def Con from 1.39882e-006 to 1.39983e-006
Heightened Def Con from 1.39983e-006 to 1.39985e-006
Heightened Def Con from 1.39985e-006 to 1.39985e-006
Heightened Def Con from 1.39985e-006 to 1.40185e-006
Heightened Def Con from 1.4026e-006 to 1.4046e-006
Heightened Def Con from 1.40461e-006 to 1.40661e-006
Heightened Def Con from 1.41728e-006 to 1.41928e-006
Heightened Def Con from 1.50667e-006 to 1.50867e-006

Date: Fri Mar 20 11:07:13 2020
Total elapsed time: 2.480 seconds.

tnom = 27
temp = 27
method = modified trap
totiter = 212170
traniter = 210794
tranpoints = 29155
accept = 13063
rejected = 17245
matrix size = 50
fillins = 189
solver = Normal
Matrix Compiler1: 13.84 KB object code size  2.2/1.0/[0.7]
Matrix Compiler2: 7.36 KB object code size  1.1/0.9/[0.4]

