Circuit: * C:\users\thetheos\Mes documents\Universite\BAC2\Q4.P_Elec\Ressources\allBlocks\RX_90degrees phase shifter circuit\new_version\dephaseur.asc

Ignoring empty pin current: Ix(u1:1)
Ignoring empty pin current: Ix(u1:2)

Date: Thu Mar 26 23:26:43 2020
Total elapsed time: 0.032 seconds.

tnom = 27
temp = 27
method = trap
totiter = 0
traniter = 0
tranpoints = 0
accept = 0
rejected = 0
matrix size = 5
fillins = 1
solver = Normal

