Circuit: * C:\users\thetheos\Mes documents\Universite\BAC2\Q4.P_Elec\Ressources\simulations\phase-shifter.asc

Direct Newton iteration for .op point succeeded.

Date: Sun Mar 22 16:38:01 2020
Total elapsed time: 0.472 seconds.

tnom = 27
temp = 27
method = modified trap
totiter = 40049
traniter = 40030
tranpoints = 20016
accept = 12018
rejected = 7998
matrix size = 30
fillins = 32
solver = Normal
Matrix Compiler1: 2.81 KB object code size  2.2/1.4/[0.9]
Matrix Compiler2: off  [1.2]/1.5/1.5

