Circuit: * C:\users\thetheos\Mes documents\Universite\BAC2\Q4.P_Elec\Ressources\allBlocks\multiplier.asc

WARNING: Less than two connections to node NC_01.  This node is used by R11.
Early termination of direct N-R iteration.
Direct Newton iteration failed to find .op point.  (Use ".option noopiter" to skip.)
Starting Gmin stepping
Gmin = 10
vernier = 0.5
vernier = 0.25
vernier = 0.125
Gmin = 5.5165
vernier = 0.0625
vernier = 0.03125
vernier = 0.015625
vernier = 0.0078125
Gmin = 5.49501
vernier = 0.00390625
vernier = 0.00195313
vernier = 0.000976563
vernier = 0.000488281
Gmin = 5.50104
Gmin = 0
Gmin stepping failed

Starting source stepping with srcstepmethod=0
Source Step = 3.0303%
Source Step = 9.84848%
Source Step = 17.4242%
Source Step = 25%
Source Step = 32.5758%
Source Step = 40.1515%
vernier = 0.375
Source Step = 50.7576%
Source Step = 62.1212%
Source Step = 73.4848%
Source Step = 84.8485%
Source Step = 96.2121%
vernier = 0.5625
Source stepping succeeded in finding the operating point.


Date: Sun Mar 22 19:59:01 2020
Total elapsed time: 10.317 seconds.

tnom = 27
temp = 27
method = modified trap
totiter = 152908
traniter = 150810
tranpoints = 75404
accept = 50861
rejected = 24543
matrix size = 176
fillins = 1486
solver = Normal
Thread vector: 19.0/15.2[4] 6.0/6.5[1] 5.8/4.7[4] 2.1/4.0[1]  2592/500
Matrix Compiler1: 230.72 KB object code size  46.3/21.3/[12.1]
Matrix Compiler2: 41.22 KB object code size  13.1/16.6/[3.3]

