Circuit: * C:\Users\guill\Programmes\LELEC1101-31\Ressources\allCircuits\Draft7.asc

Direct Newton iteration for .op point succeeded.

Date: Sun Mar 15 14:44:16 2020
Total elapsed time: 0.040 seconds.

tnom = 27
temp = 27
method = modified trap
totiter = 2107
traniter = 2090
tranpoints = 1046
accept = 1045
rejected = 1
matrix size = 32
fillins = 32
solver = Normal
Matrix Compiler1: 2.92 KB object code size  0.6/0.3/[0.3]
Matrix Compiler2: off  [0.3]/0.4/0.3

