Circuit: * C:\Users\guill\Programmes\LELEC1101-31\Ressources\allCircuits\Draft6.asc

Direct Newton iteration for .op point succeeded.

Date: Sun Mar 15 14:38:51 2020
Total elapsed time: 0.060 seconds.

tnom = 27
temp = 27
method = modified trap
totiter = 2108
traniter = 2090
tranpoints = 1046
accept = 1045
rejected = 1
matrix size = 31
fillins = 32
solver = Normal
Matrix Compiler1: 2.79 KB object code size  0.6/0.3/[0.2]
Matrix Compiler2: off  [0.3]/0.4/1.0

