Circuit: * C:\Users\guill\Programmes\LELEC1101-31\Ressources\allCircuits\Draft8.asc

Direct Newton iteration for .op point succeeded.

Date: Sun Mar 15 15:20:33 2020
Total elapsed time: 0.323 seconds.

tnom = 27
temp = 27
method = modified trap
totiter = 68511
traniter = 68468
tranpoints = 34235
accept = 24722
rejected = 9513
matrix size = 29
fillins = 32
solver = Normal
Matrix Compiler1: 2.75 KB object code size  0.5/0.3/[0.2]
Matrix Compiler2: off  [0.2]/0.5/0.3

