Circuit: * C:\Users\guill\Programmes\LELEC1101-31\Ressources\allCircuits\followerCapa.asc

Direct Newton iteration for .op point succeeded.

Date: Sun Mar 15 14:30:55 2020
Total elapsed time: 0.174 seconds.

tnom = 27
temp = 27
method = modified trap
totiter = 7337
traniter = 7320
tranpoints = 3661
accept = 2442
rejected = 1219
matrix size = 28
fillins = 38
solver = Normal
Matrix Compiler1: 3.41 KB object code size  0.6/0.3/[0.3]
Matrix Compiler2: 2.96 KB object code size  0.2/0.4/[0.2]

