Circuit: * Z:\home\thetheos\Documents\Université\BAC2\Q4.P_Elec\Ressources\allBlocks\RX_differentialAmplifier\differentialAmplifier.asc

Direct Newton iteration for .op point succeeded.

Date: Sun Mar 15 22:51:51 2020
Total elapsed time: 0.029 seconds.

tnom = 27
temp = 27
method = modified trap
totiter = 2110
traniter = 2092
tranpoints = 1047
accept = 1046
rejected = 1
matrix size = 32
fillins = 32
solver = Normal
Matrix Compiler1: 2.92 KB object code size  0.5/0.3/[0.3]
Matrix Compiler2: off  [0.3]/0.3/0.4

