Circuit: * C:\Users\guill\Programmes\LELEC1101-31\Ressources\allBlocks\RX_differentialAmplifier\differentialAmplifier.asc

Direct Newton iteration failed to find .op point.  (Use ".option noopiter" to skip.)
Starting Gmin stepping
Gmin = 10
vernier = 0.5
vernier = 0.25
vernier = 0.125
Gmin = 5.5165
vernier = 0.0625
vernier = 0.03125
vernier = 0.015625
vernier = 0.0078125
Gmin = 5.49501
vernier = 0.00390625
vernier = 0.00195313
vernier = 0.000976563
vernier = 0.000488281
Gmin = 5.50104
Gmin = 0
Gmin stepping failed

Starting source stepping with srcstepmethod=0
Source Step = 3.0303%
Source Step = 33.3333%
Source Step = 63.6364%
Source Step = 93.9394%
Source stepping succeeded in finding the operating point.


Date: Mon Mar 16 19:25:23 2020
Total elapsed time: 0.125 seconds.

tnom = 27
temp = 27
method = modified trap
totiter = 7259
traniter = 5573
tranpoints = 2342
accept = 2019
rejected = 323
matrix size = 32
fillins = 37
solver = Normal
Matrix Compiler1: 3.03 KB object code size  0.6/0.3/[0.2]
Matrix Compiler2: 3.22 KB object code size  0.5/0.5/[0.3]

